#p force B3LYP/STO-3G nosymm geom=connectivity fchk=all test

Title Card Required

0 1
 C                0   -3.48071446    0.16877637    0.04556497 L H 5
 H                0   -3.12406003   -0.84003363    0.04556497 L
 H                0   -3.12404162    0.67317456   -0.82808654 L
 H                0   -4.55071446    0.16878955    0.04556497 L
 C                0   -2.96737224    0.89473264    1.30296994 H
 H                0   -3.32564135    0.39146421    2.17661983 H
 H                0   -1.89737405    0.89302596    1.30394869 H
 C                0   -3.47838792    2.34747522    1.30156304 H
 H                0   -4.54838570    2.34918139    1.30020810 H
 H                0   -3.12202242    2.85176548    2.17540225 H
 H                0   -3.11981182    2.85085146    0.42810123 H

 1 2 1.0 3 1.0 4 1.0 5 1.0
 2
 3
 4
 5 6 1.0 7 1.0 8 1.0
 6
 7
 8 9 1.0 10 1.0 11 1.0
 9
 10
 11

